/*--------------------------------*- C++ -*----------------------------------*\
  =========                 |
  \\      /  F ield         | OpenFOAM: The Open Source CFD Toolbox
   \\    /   O peration     | Website:  https://openfoam.org
    \\  /    A nd           | Version:  6
     \\/     M anipulation  |
\*---------------------------------------------------------------------------*/
FoamFile
{
    version     2.0;
    format      ascii;
    class       dictionary;
    location    "constant";
    object      mechanicalProperties;
}
// * * * * * * * * * * * * * * * * * * * * * * * * * * * * * * * * * * * * * //

plasticityModel     vonMisesPlasticity;

rho     rho [1 -3 0 0 0 0 0]  8930;
E       E 	[1 -1 -2 0 0 0 0] 117e9;
nu      nu  [0 0 0 0 0 0 0]   0.35;
Hm      Hm  [1 -1 -2 0 0 0 0] 0.1e9;
Ys      Ys  [1 -1 -2 0 0 0 0] 0.4e9;

// ************************************************************************* //